/*--------------------------------*- C++ -*----------------------------------*\
  =========                 |				
  \\      /  F ield         | OpenFOAM: The Open Source CFD Toolbox
   \\    /   O peration     | Website:  https://openfoam.org
    \\  /    A nd           | Version:  10                                   	
     \\/     M anipulation  |
\*---------------------------------------------------------------------------*/
FoamFile
{
    format      ascii;
    class       dictionary;
    object      fvSchemes;
}
// * * * * * * * * * * * * * * * * * * * * * * * * * * * * * * * * * * * * * //

ddtSchemes
{
    default Euler;
}

gradSchemes
{
    default 	cellLimited leastSquares 0.5;
    nHat     	Gauss linear;	//Face unit interface normal
}

divSchemes
{
    default                         none;
    div(phi,alpha.air)              Gauss vanLeer;
    div(phi,alpha.water)            Gauss vanLeer;
    div(phir,alpha.water,alpha.air) Gauss vanLeer;
    div(phir,alpha.air,alpha.water) Gauss vanLeer;
    "div\(alphaRhoPhi.*,U.*\)"      Gauss limitedLinear 1;
    "div\(phi.*,U.*\)"              Gauss limitedLinear 1;
    "div\(alphaRhoPhi.*,(h|e).*\)"  Gauss limitedLinear 1;
    "div\(alphaRhoPhi.*,K.*\)"      Gauss limitedLinear 1;
    "div\(alphaRhoPhi.*,\(p\|thermo:rho.*\)\)" Gauss limitedLinear 1;
    "div\(alphaRhoPhi.*,(k|epsilon).*\)"  Gauss limitedLinear 1;
    "div\(phim,(k|epsilon)m\)"      Gauss limitedLinear 1;
    "div\(\(\(\(alpha.**thermo:rho.*\)*nuEff.*\)*dev2\(T\(grad\(U.*\)\)\)\)\)" Gauss linear;
    "div\(alphaPhi.*,f.*\)"         Gauss limitedLinear 1;
}

laplacianSchemes
{
    default         Gauss linear limited 1;
}

interpolationSchemes
{
    default         linear;
}

snGradSchemes
{
    default         limited 1;
}
wallDist
{
    method meshWave;
    nRequired false;
    updateInterval 5;
}
// ************************************************************************* //
