/*--------------------------------*- C++ -*----------------------------------*\
  =========                 |				
  \\      /  F ield         | OpenFOAM: The Open Source CFD Toolbox
   \\    /   O peration     | Website:  https://openfoam.org
    \\  /    A nd           | Version:  10                                   	
     \\/     M anipulation  |
\*---------------------------------------------------------------------------*/
FoamFile
{
    format      ascii;
    class       dictionary;
    object      renumberMeshDict;
}
// * * * * * * * * * * * * * * * * * * * * * * * * * * * * * * * * * * * * * //
writeMaps true;
sortCoupledFaceCells false;
method          CuthillMcKee;
manualCoeffs
{
    dataFile "cellMap";
}
structuredCoeffs
{
    // Patches that mesh was extruded from. These determine the starting
    // layer of cells
    patches (movingWall);
    // Method to renumber the starting layer of cells
    method  random;

    // Renumber in columns (depthFirst) or in layers
    depthFirst true;

    // Reverse ordering
    reverse false;
}

springCoeffs
{
    // Maximum jump of cell indices. Is fraction of number of cells
    maxCo 0.01;

    // Limit the amount of movement; the fraction maxCo gets decreased
    // with every iteration
    freezeFraction 0.999;

    // Maximum number of iterations
    maxIter 1000;
}

blockCoeffs
{
    method          scotch;
    //method hierarchical;
    //hierarchicalCoeffs
    //{
    //    n           (1 2 1);
    //    delta       0.001;
    //    order       xyz;
    //}
}

zoltanCoeffs
{
    ORDER_METHOD    LOCAL_HSFC;
}

// ************************************************************************* //
